[TITLE]
;;Project Title/Notes

[OPTIONS]
;;Option             Value
FLOW_UNITS           CFS
INFILTRATION         GREEN_AMPT
FLOW_ROUTING         DYNWAVE
LINK_OFFSETS         DEPTH
MIN_SLOPE            0
ALLOW_PONDING        NO
SKIP_STEADY_STATE    NO

START_DATE           10/12/2013
START_TIME           12:00:00
REPORT_START_DATE    10/12/2013
REPORT_START_TIME    12:00:00
END_DATE             10/13/2013
END_TIME             14:00:00
SWEEP_START          01/01
SWEEP_END            12/31
DRY_DAYS             0
REPORT_STEP          00:02:00
WET_STEP             00:00:20
DRY_STEP             00:05:00
ROUTING_STEP         0:00:05 

INERTIAL_DAMPING     PARTIAL
NORMAL_FLOW_LIMITED  BOTH
FORCE_MAIN_EQUATION  H-W
VARIABLE_STEP        0.75
LENGTHENING_STEP     0
MIN_SURFAREA         12.557
MAX_TRIALS           8
HEAD_TOLERANCE       0.005
SYS_FLOW_TOL         5
LAT_FLOW_TOL         5
MINIMUM_STEP         0.5
THREADS              1

[EVAPORATION]
;;Data Source    Parameters
;;-------------- ----------------
FILE             1.0    1.0    1.0    1.0    1.0    1.0    1.0    1.0    1.0    1.0    1.0    1.0   
RECOVERY         Soil_Recover_01
DRY_ONLY         NO

[TEMPERATURE]
;;Data Element     Values     
FILE               "C:\Users\edt489\Box Sync\SWMMCALPY1.0\Brentwood Files\Brentwood_Uncalibrated_4hourSpinUp\For Eddie\NCDC410428_ClimateFile_ETo_Only_600101-141231.dat"
WINDSPEED MONTHLY  0.0 0.0 0.0 0.0 0.0 0.0 0.0 0.0 0.0 0.0 0.0 0.0
SNOWMELT           34 0.5 0.6 0.0 50.0 0.0
ADC IMPERVIOUS     1.0 1.0 1.0 1.0 1.0 1.0 1.0 1.0 1.0 1.0
ADC PERVIOUS       1.0 1.0 1.0 1.0 1.0 1.0 1.0 1.0 1.0 1.0

[RAINGAGES]
;;Name           Format    Interval SCF      Source    
;;-------------- --------- ------ ------ ----------
;2/10/2012 to 12/31/2014
BW1rain_rev1     VOLUME    0:01     1.0      FILE       "C:\Users\edt489\Box Sync\SWMMCALPY1.0\Brentwood Files\Brentwood_Uncalibrated_4hourSpinUp\For Eddie\BW1rain_120210-141231_rev1.dat" 7777       IN   
;3/8/2012 to 12/31/2014
BW2rain_rev1     VOLUME    0:01     1.0      FILE       "C:\Users\edt489\Box Sync\SWMMCALPY1.0\Brentwood Files\Brentwood_Uncalibrated_4hourSpinUp\For Eddie\BW2rain_120308-141231_rev1.dat" 8888       IN   
COA_100-yr_Depth_Gage VOLUME    0:05     1.0      TIMESERIES COA_100-yr_Depth
COA_10-yr_Depth_Gage VOLUME    0:05     1.0      TIMESERIES COA_10-yr_Depth 
COA_25-yr_Depth_Gage VOLUME    0:05     1.0      TIMESERIES COA_25-yr_Depth 
COA_2-yr_Depth_Gage VOLUME    0:05     1.0      TIMESERIES COA_2-yr_Depth  
COA_5-yr_Depth_Gage VOLUME    0:05     1.0      TIMESERIES COA_5-yr_Depth  

[SUBCATCHMENTS]
;;Name           Rain Gage        Outlet           Area     %Imperv  Width    %Slope   CurbLen  SnowPack        
;;-------------- ---------------- ---------------- -------- -------- -------- -------- -------- ----------------
;2                            
S-1001      BW1rain_rev1      J-1517      1.6919      90.0      219.33113778126375      0.2646242058019411      0
;5
S-1002      BW1rain_rev1      J-1152      0.3027      90.0      131.866      3.225      0
;4
S-1003      BW1rain_rev1      J-1007      0.2315      90.0      100.838      0.06840393755528272      0
;4
S-1004      BW1rain_rev1      J-1500      0.2058      40.97664559554326      893.5077559283285      4.019      0
;5
S-1005      BW1rain_rev1      J-1068      0.1965      90.0      85.573      3.401      0
;5
S-1006      BW1rain_rev1      J-1077      0.1727      25.403276803232057      932.4645583068507      4.436      0
;5
S-1007      BW1rain_rev1      J-1117      0.1372      90.0      660.3856911271316      4.155      0
;5
S-1008      BW1rain_rev1      J-1138      0.2467      66.93854408890391      841.632544913567      3.074      0
;5
S-1009      BW1rain_rev1      J-1178      0.2476      94.21145996434412      107.825      0.08305694304290501      0
;5
S-1010      BW1rain_rev1      J-1209      0.2077      68.71392899967239      557.7364085288481      0.1956805454156685      0
;3
S-1011      BW1rain_rev1      J-1019      1.0133      85.41271424076687      441.344      0.2307731624715556      0
;4
S-1012      BW1rain_rev1      J-1485      0.1701      39.26080158383888      74.073      2.588      0
;4
S-1013      BW1rain_rev1      J-1738      0.2359      90.0      102.757      0.39736056916076673      0
;4
S-1014      BW1rain_rev1      J-1495      0.2541      6.5944765857063      475.5610708288375      0.2708419727128933      0
;4
S-1015      BW1rain_rev1      J-1431      0.3326      90.0      25.80749241804628      0.05232057181434748      0
;4
S-1016      BW1rain_rev1      J-1461      0.2531      90.0      110.225      5.697      0
;7
S-1017      BW1rain_rev1      J-1336      0.1794      90.9781665897285      78.151      5.757      0
;8
S-1018      BW1rain_rev1      J-1620      0.2086      28.88143852493481      83.50827036307885      2.707      0
;5
S-1019      BW1rain_rev1      J-1701      0.1313      90.0      57.203      3.243      0
;5
S-1020      BW1rain_rev1      J-1241      0.2053      90.0      856.9554093078604      0.27464718518763065      0
;5
S-1021      BW1rain_rev1      J-1073      0.3993      63.50543622609077      173.934      3.117      0
;6
S-1022      BW1rain_rev1      J-1182      0.1898      90.0      82.664      0.38321486166520724      0
;6
S-1023      BW1rain_rev1      J-1206      0.1695      90.0      436.44256264721446      5.593      0
;4
S-1024      BW1rain_rev1      S-1392      2.1083      90.0      31.736      0.19572467801303609      0
;4
S-1025      BW1rain_rev1      S-1454      0.8733      60.42897337266238      112.84830366464803      2.914      0
;4
S-1026      BW1rain_rev1      S-1227      0.3338      34.20974065777445      106.6961961727071      2.105      0
;4
S-1027      BW1rain_rev1      S-1026      0.3474      90.0      9.425      0.04066574527484411      0
;4
S-1028      BW1rain_rev1      S-1026      0.3761      65.96410855237627      11.228      2.105      0
;4
S-1029      BW1rain_rev1      S-1407      0.7182      31.903310339378532      184.40113349297343      0.09273420728967478      0
;4
S-1030      BW1rain_rev1      S-1234      0.1768      6.803030299537682      7.163      4.04      0
;4
S-1031      BW1rain_rev1      S-1463      0.8096      73.05592033328345      18.214      2.674      0
;4
S-1032      BW1rain_rev1      S-1466      1.2963      90.0      21.735      3.093      0
;4
S-1033      BW1rain_rev1      J-1832      1.8357      8.242024571596485      29.615      4.323      0
;5
S-1034      BW1rain_rev1      S-1288      1.4103      90.0      19.642      0.19642061863401009      0
;5
S-1035      BW1rain_rev1      S-1473      2.5946      90.0      109.23754855202944      1.955      0
;5
S-1036      BW1rain_rev1      S-1303      1.7546      90.0      20.007      0.2519165385975669      0
;5
S-1037      BW1rain_rev1      S-1309      1.939      90.0      20.718      1.991      0
;5
S-1038      BW1rain_rev1      J-1867      0.8011      83.56633766938585      33.994      0.32480512806543776      0
;5
S-1039      BW1rain_rev1      J-1860      1.9311      80.50757797975085      35.139      0.24957386870093085      0
;5
S-1040      BW1rain_rev1      S-1310      2.389      10.597535888769173      21.576      0.22008340340033017      0
;5
S-1041      BW1rain_rev1      S-1132      2.5146      34.39918048365551      780.6225976513911      1.874      0
;5
S-1042      BW1rain_rev1      J-1852      1.4914      60.14423332939557      32.298      0.28906941766553607      0
;5
S-1043      BW1rain_rev1      S-1020      1.3565      90.0      21.622      2.035      0
;5
S-1044      BW1rain_rev1      J-1847      1.3664      67.47706318223672      736.659237042994      2.931      0
;5
S-1045      BW1rain_rev1      J-1843      1.4742      7.636903355652979      824.5328242466359      0.32471378866918793      0
;5
S-1046      BW1rain_rev1      S-1092      1.2828      90.0      903.2805201766195      0.3680685963334703      0
;5
S-1047      BW1rain_rev1      J-1837      1.0219      4.674872941468966      751.1934017369273      0.19252261055926975      0
;5
S-1048      BW1rain_rev1      J-1831      2.0932      38.819700996051864      109.19814516064423      4.231      0
;7
S-1049      BW1rain_rev1      S-1412      7.1103      90.0      117.93064228735939      4.423      0
;7
S-1050      BW1rain_rev1      S-1203      2.2292      90.0      39.31      0.17565791573579112      0
;7
S-1051      BW1rain_rev1      S-1437      1.8494      90.0      280.13385952431713      2.175      0
;7
S-1052      BW1rain_rev1      S-1147      1.2828      35.434402530313015      29.848      0.2500087712591495      0
;3
S-1053      BW1rain_rev1      S-1014      2.5719      6.356856797763555      35.071      2.149      0
;3
S-1054      BW1rain_rev1      S-1226      1.5237      90.0      279.17633115993823      2.351      0
;3
S-1055      BW1rain_rev1      S-1406      1.7733      29.123526031786273      27.061      2.867      0
;6
S-1056      BW1rain_rev1      S-1078      1.3543      80.18988747241434      949.1971459738028      1.657      0
;6
S-1057      BW1rain_rev1      S-1312      1.5431      90.0      924.9580211675969      0.3255656930099209      0
;6
S-1058      BW1rain_rev1      S-1314      2.0419      64.96262860772569      206.13403569620937      0.07235191772703105      0
;6
S-1059      BW1rain_rev1      S-1108      1.5478      90.0      30.645      0.008317470174835306      0
;6
S-1060      BW1rain_rev1      S-1102      0.3401      90.0      16.362      3.41      0
;6
S-1061      BW1rain_rev1      S-1322      1.4742      94.68890827460842      635.5486743381573      0.011157802799557635      0
;6
S-1062      BW1rain_rev1      S-1115      0.9782      4.4878843257581185      23.474      2.976      0
;6
S-1063      BW1rain_rev1      S-1335      1.5687      20.17935245936907      38.138      0.008037082298137457      0
;6
S-1064      BW1rain_rev1      S-1066      1.1321      90.0      545.9564157853192      2.429      0
;6
S-1065      BW1rain_rev1      S-1258      0.5491      42.57432943830746      26.599337340508715      0.28806140891354326      0
;8
S-1066      BW1rain_rev1      S-1153      1.0056      48.30847329527834      32.304      1.548      0
;8
S-1067      BW1rain_rev1      S-1097      1.4691      33.60380064985237      245.9100075299057      2.147      0
;8
S-1068      BW1rain_rev1      S-1340      0.6626      90.0      19.239      2.022      0
;8
S-1069      BW1rain_rev1      J-1815      1.199      21.305268190792013      586.9419187324546      0.3518764356992432      0
;8
S-1070      BW1rain_rev1      J-1849      0.6332      90.0      837.5216944389042      0.3469808684334136      0
;8
S-1071      BW1rain_rev1      J-1877      2.214      90.0      7.857409291177653      2.987      0
;8
S-1072      BW1rain_rev1      J-1829      0.6832      90.0      17.093      0.36920309132514817      0
;6
S-1073      BW1rain_rev1      J-1676      0.1097      90.0      913.4189837478622      4.451      0
;5
S-1074      BW1rain_rev1      J-1307      0.2465      59.722010595133725      431.5859270142425      0.1547170371046026      0
;6
S-1075      BW1rain_rev1      S-1329      1.7457      62.1027292198876      35.891      0.29396677593113385      0
;6
S-1076      BW1rain_rev1      S-1346      1.973      89.20896736725899      409.8318995179213      0.004900919416780067      0
;4
S-1077      BW1rain_rev1      S-1386      1.3231      90.0      34.017      2.362      0
;6
S-1078      BW1rain_rev1      J-1135      0.1548      8.748220650266358      67.438      0.29662423771526425      0
;3
S-1079      BW1rain_rev1      J-1471      0.1507      64.60450487794942      973.9511621320635      0.2557102799647547      0
;5
S-1080      BW1rain_rev1      J-1069      0.1296      90.0      673.7964071502607      2.739      0
;5
S-1081      BW1rain_rev1      J-1078      0.1172      27.41801640851754      208.14101685331684      0.33800086148854996      0
;5
S-1082      BW1rain_rev1      J-1119      0.1455      90.0      63.355      0.2385109864665951      0
;6
S-1083      BW1rain_rev1      J-1134      0.145      75.58311769509233      63.178      4.302      0
;5
S-1084      BW1rain_rev1      J-1139      0.2226      90.0      96.968      0.03964156531007592      0
;6
S-1085      BW1rain_rev1      J-1181      0.1868      36.51945929180982      81.384      0.2485125991147551      0
;5
S-1086      BW1rain_rev1      J-1177      0.2426      4.540014330804665      890.1498490144081      0.10247707802670396      0
;5
S-1087      BW1rain_rev1      J-1210      0.1752      41.99499722870728      76.314      0.2868655066810565      0
;6
S-1088      BW1rain_rev1      J-1205      0.1727      51.169805251177856      428.6981185992009      0.18527835133062018      0
;5
S-1089      BW1rain_rev1      J-1242      0.196      43.83659056335173      85.364      0.06180339745164875      0
;4
S-1090      BW1rain_rev1      J-1551      0.1205      90.0      563.8618134084971      2.098      0
;5
S-1091      BW1rain_rev1      J-1225      0.2584      10.74973209587583      218.42865096845222      2.673      0
;5
S-1092      BW1rain_rev1      J-1290      0.1573      90.0      68.535      5.784      0
;5
S-1093      BW1rain_rev1      J-1301      0.1726      78.15646379606154      113.01489793500022      0.03286560962568164      0
;8
S-1094      BW1rain_rev1      J-1585      0.1059      18.203829498517234      978.0857262448521      0.07959973550064166      0
;8
S-1095      BW1rain_rev1      J-1664      0.1263      99.42849599335972      588.1099594860361      0.0488273214902389      0
;8
S-1096      BW1rain_rev1      J-1610      0.132      67.7511620325032      57.496      4.459      0
;8
S-1097      BW1rain_rev1      J-1639      0.1666      90.0      142.2526284684595      5.06      0
;4
S-1098      BW1rain_rev1      J-1450      0.3907      69.18581933668999      170.191      0.05573146728491563      0
;4
S-1099      BW1rain_rev1      J-1427      0.2358      26.48016883711749      317.9535279250036      0.17664193530430497      0
;2
S-1100      BW1rain_rev1      S-1403      0.3011      90.0      131.134      0.2213989586199909      0
;5
S-1101      BW1rain_rev1      J-1291      0.1403      90.0      572.4677910838491      3.316      0
;6
S-1102      BW1rain_rev1      J-1269      0.0837      90.0      36.457      8.655      0
;4
S-1103      BW1rain_rev1      J-1846      0.3703      90.0      678.7544652813242      0.22515465391272463      0
;6
S-1104      BW1rain_rev1      J-1263      0.274      34.54818214587988      119.364      0.3581159623851408      0
;6
S-1105      BW1rain_rev1      J-1124      0.28      90.0      616.7352288813591      0.0053201711996918415      0
;6
S-1106      BW1rain_rev1      J-1127      0.2976      48.65379988170905      129.634      4.829      0
;6
S-1107      BW1rain_rev1      J-1192      0.2597      90.0      113.12      0.33376040874412216      0
;6
S-1108      BW1rain_rev1      J-1249      0.1279      90.0      55.723      0.15211326798566346      0
;6
S-1109      BW1rain_rev1      J-1250      0.1538      42.26283656557089      675.9465628120495      0.31268340472813516      0
;6
S-1110      BW1rain_rev1      J-1198      0.2832      90.0      123.359      4.776      0
;6
S-1111      BW1rain_rev1      J-1268      0.0767      70.94470949906406      33.388      0.09304850073076833      0
;6
S-1112      BW1rain_rev1      J-1259      0.3432      90.0      149.506      0.1391739186408412      0
;6
S-1113      BW1rain_rev1      J-1289      0.1674      61.51076853960983      808.7365229561548      0.04595649980915434      0
;6
S-1114      BW1rain_rev1      J-1288      0.143      29.525441441011413      62.286      0.1798874185234202      0
;6
S-1115      BW1rain_rev1      J-1326      0.1222      27.729673150351974      53.225      0.27922448577221826      0
;6
S-1116      BW1rain_rev1      J-1267      0.2907      90.0      126.638      4.673      0
;6
S-1117      BW1rain_rev1      J-1323      0.1168      90.0      235.63756220557445      2.729      0
;6
S-1118      BW1rain_rev1      J-1662      0.127      16.300914021774137      55.306      0.21617133060174448      0
;6
S-1119      BW1rain_rev1      J-1669      0.1543      90.0      378.27627248582917      0.22904576325772572      0
;6
S-1120      BW1rain_rev1      J-1319      0.3029      90.0      131.922      4.95      0
;6
S-1121      BW1rain_rev1      J-1668      0.1765      90.0      100.53220057642372      0.21619559932383717      0
;6
S-1122      BW1rain_rev1      J-1655      0.1579      62.16682544547047      68.756      0.0176869196927739      0
;6
S-1123      BW1rain_rev1      J-1673      0.1564      90.0      68.121      4.856      0
;6
S-1124      BW1rain_rev1      J-1672      0.2015      90.0      87.764      5.521      0
;6
S-1125      BW1rain_rev1      J-1273      0.3348      60.05053912925425      874.1028631810966      5.206      0
;6
S-1126      BW1rain_rev1      J-1680      0.1096      90.0      47.744      0.20297462516967632      0
;6
S-1127      BW1rain_rev1      J-1312      0.2905      39.072077351085035      126.551      0.019471109950594614      0
;5
S-1128      BW1rain_rev1      J-1574      0.1809      5.902259691044154      78.775      3.796      0
;5
S-1129      BW1rain_rev1      J-1754      0.173      90.0      242.67024601265263      0.08361875391587288      0
;5
S-1130      BW1rain_rev1      J-1302      0.1375      79.38308014267842      615.1573753835584      3.024      0
;5
S-1131      BW1rain_rev1      J-1751      0.1702      90.0      74.113      1.375      0
;5
S-1132      BW1rain_rev1      J-1165      0.1802      90.0      78.497      0.14738386460842434      0
;5
S-1133      BW1rain_rev1      J-1728      0.1059      34.81172818556365      46.111      0.37821531899999505      0
;5
S-1134      BW1rain_rev1      J-1729      0.1409      90.0      61.362      1.449      0
;5
S-1135      BW1rain_rev1      J-1730      0.1596      81.35554998524925      69.513      0.049321604962174366      0
;5
S-1136      BW1rain_rev1      J-1047      0.2219      31.435589244105376      96.654      4.264      0
;5
S-1137      BW1rain_rev1      J-1103      0.2185      50.03623433515073      960.3646684448628      0.37386092566816026      0
;3
S-1138      BW1rain_rev1      J-1002      0.1787      72.66756283480527      77.831      2.43      0
;3
S-1139      BW1rain_rev1      J-1001      0.214      8.402168472959959      93.205      0.24315901197195255      0
;3
S-1140      BW1rain_rev1      J-1013      0.2389      29.67114966298916      683.2090946433381      4.876      0
;7
S-1141      BW1rain_rev1      J-1422      0.2249      19.019871223393025      97.979      0.3846174576829595      0
;7
S-1142      BW1rain_rev1      J-1444      0.223      49.54562617913113      97.139      0.04852219652440547      0
;7
S-1143      BW1rain_rev1      J-1417      0.1913      90.0      83.342      0.3664030647236784      0
;7
S-1144      BW1rain_rev1      J-1375      0.1569      90.0      68.346      3.274      0
;7
S-1145      BW1rain_rev1      J-1490      0.3806      25.481670497773756      165.782      5.641      0
;7
S-1146      BW1rain_rev1      J-1374      0.1479      90.0      64.426      0.38764650104283915      0
;7
S-1147      BW1rain_rev1      J-1362      0.2261      90.0      98.46      5.642      0
;7
S-1148      BW1rain_rev1      J-1361      0.2021      81.81201530637058      88.046      0.02630060401920301      0
;8
S-1149      BW1rain_rev1      J-1520      0.1729      77.36846981187172      75.293      0.05931306118712177      0
;8
S-1150      BW1rain_rev1      J-1590      0.3268      82.47693290154044      142.346      0.19771506785808468      0
;8
S-1151      BW1rain_rev1      J-1329      0.2327      90.0      777.8763371332082      0.18521469412079966      0
;8
S-1152      BW1rain_rev1      J-1492      0.1482      32.45367586429598      64.53      0.16790687104392704      0
;8
S-1153      BW1rain_rev1      J-1651      0.3975      90.0      173.147      3.497      0
;8
S-1154      BW1rain_rev1      J-1600      0.2985      73.08613481529352      766.5958957254238      0.22156653821581368      0
;8
S-1155      BW1rain_rev1      J-1873      0.3823      65.03164449968249      833.3423316497075      0.2634016547313654      0
;8
S-1156      BW1rain_rev1      J-1815      0.9856      3.213033051894887      942.3328892703353      0.39991489773604666      0
;8
S-1157      BW1rain_rev1      J-1819      1.6195      90.0      127.17000280284357      7.026      0
;7
S-1158      BW1rain_rev1      J-1825      0.4719      90.0      23.639      11.528      0
;5
S-1159      BW1rain_rev1      S-1166      0.4672      90.0      712.5657845918807      2.461      0
;5
S-1160      BW1rain_rev1      S-1298      0.7552      90.0      809.3221505205157      1.766      0
;5
S-1161      BW1rain_rev1      S-1296      1.347      90.0      465.26304172441127      2.019      0
;5
S-1162      BW1rain_rev1      S-1286      0.723      34.445950843798514      19.727      1.969      0
;5
S-1163      BW1rain_rev1      S-1005      0.9474      90.0      634.184355972069      0.22590901267224658      0
;5
S-1164      BW1rain_rev1      S-1290      1.1188      90.0      754.7625545778609      1.993      0
;5
S-1165      BW1rain_rev1      J-1038      0.2473      90.0      512.1908202942238      0.2022828323728995      0
;5
S-1166      BW1rain_rev1      J-1042      0.178      90.0      824.2981593651684      0.2144426688319432      0
;6
S-1167      BW1rain_rev1      S-1305      1.1169      19.924832103550038      24.352      0.13306379024545914      0
;5
S-1168      BW1rain_rev1      S-1084      1.465      90.0      146.49682103050012      1.95      0
;6
S-1169      BW1rain_rev1      S-1022      1.3179      43.20780202498272      263.2900134987737      0.1421693070789095      0
;5
S-1170      BW1rain_rev1      S-1374      0.7159      21.7283925056736      721.2725388975236      0.31372389630210223      0
;5
S-1171      BW1rain_rev1      S-1009      0.8285      90.0      561.6406900625908      1.682      0
;6
S-1172      BW1rain_rev1      S-1023      0.8277      90.0      18.379      1.795      0
;5
S-1173      BW1rain_rev1      S-1010      1.5738      74.5467734292137      37.478      0.35065304760090943      0
;6
S-1174      BW1rain_rev1      S-1318      1.3839      90.0      26.604      0.040097657273622564      0
;6
S-1175      BW1rain_rev1      S-1316      1.5133      90.0      33.694      2.436      0
;5
S-1176      BW1rain_rev1      S-1377      1.1363      90.0      570.8813109468766      0.3556571956966577      0
;5
S-1177      BW1rain_rev1      S-1130      0.5479      2.6942498536566495      10.895      2.778      0
;6
S-1178      BW1rain_rev1      S-1113      0.847      26.84194276460784      21.746      3.121      0
;6
S-1179      BW1rain_rev1      S-1324      1.3627      35.72308970390685      31.02      0.07591920160455978      0
;6
S-1180      BW1rain_rev1      S-1320      1.2375      58.20943131208096      29.993      3.296      0
;6
S-1181      BW1rain_rev1      S-1332      0.7917      90.0      18.447      0.16677474921500568      0
;6
S-1182      BW1rain_rev1      S-1121      1.3897      90.0      411.20496862289446      1.768      0
;6
S-1183      BW1rain_rev1      S-1344      1.8906      1.8836733496902847      32.833      1.98      0
;6
S-1184      BW1rain_rev1      S-1124      1.4862      90.0      206.01032737879035      0.17823879752671196      0
;6
S-1185      BW1rain_rev1      S-1327      1.5287      90.0      168.41280855385767      2.411      0
;6
S-1186      BW1rain_rev1      S-1331      1.2479      90.0      29.486      2.314      0
;6
S-1187      BW1rain_rev1      S-1126      1.7005      90.0      29.629      0.2794615629613997      0
;8
S-1188      BW1rain_rev1      J-1653      0.123      36.88102934267078      805.5645229338144      0.2820456347449923      0
;5
S-1189      BW1rain_rev1      J-1830      2.051      72.70079047470908      30.773      2.972      0
;4
S-1190      BW1rain_rev1      J-1466      0.113      63.88127292894592      49.219      5.194      0
;4
S-1191      BW1rain_rev1      J-1829      0.8246      90.0      245.720850482117      5.107      0
;4
S-1192      BW1rain_rev1      S-1098      0.8755      90.0      20.586      0.20101530332894038      0
;4
S-1193      BW1rain_rev1      S-1099      0.4347      90.0      574.1698055722624      0.0553268734143458      0
;4
S-1194      BW1rain_rev1      S-1252      0.8756      95.77370626509382      719.8039689707247      0.3592757467587393      0
;4
S-1195      BW1rain_rev1      S-1474      0.8034      15.42999458816231      25.372      0.38512973991098554      0
;4
S-1196      BW1rain_rev1      J-1831      1.329      90.0      46.473      7.308      0
;4
S-1197      BW1rain_rev1      S-1033      1.4703      46.332547910065514      30.539      0.1812434688843107      0
;7
S-1198      BW1rain_rev1      J-1381      0.2026      54.214348642228025      88.259      0.0799776038977848      0
;7
S-1199      BW1rain_rev1      J-1400      0.2797      90.0      121.836      5.69      0
;7
S-1200      BW1rain_rev1      J-1395      0.1545      77.26982940269174      67.281      5.602      0
;7
S-1201      BW1rain_rev1      J-1380      0.2274      90.0      94.78962184569058      0.3125310477324245      0
;7
S-1202      BW1rain_rev1      S-1201      1.4318      90.0      222.83349816785923      0.16762126943243943      0
;7
S-1203      BW1rain_rev1      S-1199      0.7002      60.76797875933481      170.9832597968816      6.258      0
;4
S-1204      BW1rain_rev1      S-1306      0.4763      78.52494313890779      549.2761623452001      0.369729596677997      0
;7
S-1205      BW1rain_rev1      S-1443      1.0598      90.0      21.443      0.19163965706344435      0
;5
S-1206      BW1rain_rev1      S-1301      2.1108      90.0      22.902      2.129      0
;2
S-1207      BW1rain_rev1      J-1870      1.7501      90.0      23.048      2.304      0
;4
S-1208      BW1rain_rev1      S-1382      1.1403      90.80675492791718      210.5583266453554      1.921      0
;4
S-1209      BW1rain_rev1      S-1384      1.1987      90.0      648.4770854263498      1.993      0
;4
S-1210      BW1rain_rev1      S-1004      0.9999      90.0      28.758      2.545      0
;4
S-1211      BW1rain_rev1      J-1868      0.8365      37.54059841484405      22.381      0.025926653762299925      0
;4
S-1212      BW1rain_rev1      J-1860      0.8559      2.6729476856410694      509.0176413341364      0.1697172787362075      0
;4
S-1213      BW1rain_rev1      J-1008      0.1973      90.0      818.6351048872374      3.239      0
;5
S-1214      BW1rain_rev1      J-1700      0.1285      90.0      919.4906669132527      1.489      0
;4
S-1215      BW1rain_rev1      J-1501      0.1636      3.0987402610893056      623.9147912925451      0.11541416321356825      0
;4
S-1216      BW1rain_rev1      J-1542      0.1284      90.0      55.909      4.634      0
;4
S-1217      BW1rain_rev1      J-1713      0.1467      83.20893524206703      440.5005478559671      0.3668441093145235      0
;4
S-1218      BW1rain_rev1      J-1546      0.1204      49.95612371886345      52.457      0.2781356314868023      0
;4
S-1219      BW1rain_rev1      J-1544      0.1281      49.51443362228976      30.246578554664136      0.2531454601266151      0
;4
S-1220      BW1rain_rev1      J-1683      0.1603      90.0      30.53274261661147      0.225760783760984      0
;4
S-1221      BW1rain_rev1      J-1496      0.1845      96.85585699401479      246.63233531772457      2.611      0
;4
S-1222      BW1rain_rev1      J-1499      0.2356      90.0      13.427962557270625      3.363      0
;4
S-1223      BW1rain_rev1      J-1719      0.1451      40.64547716008576      264.0270319636479      2.453      0
;4
S-1224      BW1rain_rev1      J-1714      0.1459      90.0      63.563      0.1550166758109824      0
;4
S-1225      BW1rain_rev1      J-1543      0.106      44.65949221067332      449.16107588847717      9.004      0
;4
S-1226      BW1rain_rev1      J-1716      0.2212      90.0      39.42035955488356      0.2395891224960814      0
;4
S-1227      BW1rain_rev1      J-1550      0.0826      95.64398825417615      426.60085518546504      0.2846805914035985      0
;4
S-1228      BW1rain_rev1      S-1103      0.346      90.0      15.189      0.362948725390511      0
;4
S-1229      BW1rain_rev1      S-1234      0.3103      90.0      184.27990237748142      0.11933100479678249      0
;4
S-1230      BW1rain_rev1      S-1013      0.7686      26.890493209755018      69.54165434734655      4.196      0
;4
S-1231      BW1rain_rev1      J-1559      0.1878      27.510199359054422      470.4603132105517      4.149      0
;4
S-1232      BW1rain_rev1      J-1568      0.0695      90.0      30.291      3.941      0
;4
S-1233      BW1rain_rev1      J-1739      0.1077      90.0      46.895      0.07780123016419967      0
;4
S-1234      BW1rain_rev1      J-1558      0.1421      83.32398085958873      785.3919521988024      0.3906760688348883      0
;4
S-1235      BW1rain_rev1      J-1570      0.1386      90.0      147.9688561047218      0.37177399268769135      0
;5
S-1236      BW1rain_rev1      J-1752      0.1138      38.780996280729376      49.554      0.3981334018223723      0
;5
S-1237      BW1rain_rev1      S-1350      0.7079      48.10047543248933      16.136      1.747      0
;4
S-1238      BW1rain_rev1      J-1838      0.5194      65.24679140762042      646.1383783501636      0.1798630979472411      0
;4